merged_boeing-kelly-ortberg-ceo.txt
<other>Reviewing the article to ensure accurate answers based solely on the provided text.</other>
<question_number>1</question_number>
<answer>Kelly Ortberg was CEO of Rockwell Collins until it was acquired by United Technologies in late 2018, retained a senior role until the merger with Raytheon in early 2020 to form RTX, and retired from RTX in 2021.</answer>
<question_number>2</question_number>
<answer>Kelly Ortberg's experience at Rockwell Collins, where he oversaw development programs for aircraft like the Boeing 787 and Airbus A350, aligns with Boeing's challenges as Rockwell produced avionics for many planes, including the 737 Max, indicating expertise in critical aircraft systems.</answer>
<question_number>3</question_number>
<answer>Kelly Ortberg's appointment reflects Boeing's response to FAA scrutiny by bringing in an experienced aerospace veteran known for leadership and engineering skills to address quality and safety issues amid production limitations on the 737 Max.</answer>
<question_number>4</question_number>
<answer>Kelly Ortberg's leadership at Rockwell Collins, where he managed significant development programs and later became CEO, played a key role in his selection due to his deep understanding of aerospace and ability to handle complex challenges like those Boeing currently faces.</answer>
<question_number>5</question_number>
<answer>Kelly Ortberg's appointment suggests Boeing's approach to balancing long-term strategy with immediate stakeholder expectations, as he is described as an executive who excels at both, according to Kevin Michaels of AeroDynamic Advisory.</answer>
<question_number>6</question_number>
<answer>Kelly Ortberg</answer>
<question_number>7</question_number>
<answer>Kelly Ortberg</answer>
<question_number>8</question_number>
<answer>Kelly Ortberg</answer>
<question_number>9</question_number>
<answer>Kelly Ortberg</answer>
<question_number>10</question_number>
<answer>Kelly Ortberg</answer>
<other>Ensured all answers are directly sourced from the article and adhere to the specified format.</other>